# periodic boundary conditions along all three dimensions
boundary p p p

# Set neighbor skin
variable neigh_skin equal 2.0*1
neighbor 2 bin

# create a supercell with cubic lattice (fcc, bcc, sc, or diamond)
# using 10*10*10 conventional (orthogonal) unit cells
variable latticeconst_converted equal 4.032082748413087*1
lattice       fcc  4.03208274841309
Lattice spacing in x,y,z = 4.03208 4.03208 4.03208
region        simbox  block 0 10 0 10 0 10 units lattice
create_box    1 simbox
Created orthogonal box = (0 0 0) to (40.3208 40.3208 40.3208)
create_atoms  1 box
Created 4000 atoms

variable mass_converted equal 26.981538*1

kim_interactions Al
#=== BEGIN kim_interactions ==================================
pair_style kim EAM_CubicNaturalSpline_ErcolessiAdams_1994_Al__MO_800509458712_002
pair_coeff * * Al
#=== END kim_interactions ====================================

mass          1 26.981538

# initial volume
variable      v equal vol        # assign formula
variable      V0 equal 65552.3565796382
variable      V0_metal equal 65552.3565796382/(1*1*1)
variable      V0_metal_times1000 equal 65552.3565796382*1000

Initial system volume: 65552.3565796382 Angstroms^3

# set the time step to 0.001 picoseconds
variable timestep_converted equal 0.001*1
timestep 0.001

variable temp_converted equal 293.15*1
variable Tdamp_converted equal 0.1*1
variable press_converted equal 0.0*1
variable Pdamp_converted equal 1*1

# create initial velocities consistent with the chosen temperature
velocity      all create 293.15 17 mom yes rot yes

# set NPT ensemble for all atoms
fix           ensemble all npt temp 293.15 293.15 0.1               iso 0 0 1

# compute the time averages of pressure, temperature, and volume, respectively
# ignore the first 5000 timesteps
variable      etotal_metal equal etotal/1
variable      pe_metal equal pe/1
variable      T_metal equal temp/1
variable      V_metal equal vol/(1*1*1)
variable      P_metal equal press/1
fix           avgmyTemp  all ave/time 5 20 100 v_T_metal  ave running start 5000
fix           avgmyPress all ave/time 5 20 100 v_P_metal ave running start 5000
fix           avgmyVol   all ave/time 5 20 100 v_V_metal   ave running start 5000

# extract fix quantities into variables so they can be used in if-else logic later.
variable      T equal f_avgmyTemp
variable      P equal f_avgmyPress
variable      V equal f_avgmyVol

# set error bounds for temperature and pressure in original metal units (K and bar)
variable      T_low equal  "293.15 - 0.2"
variable      T_up  equal  "293.15 + 0.2"
variable      P_low equal  "0.0 - 0.2"
variable      P_up  equal  "0.0 + 0.2"

# print to logfile every 1000 timesteps
thermo_style  custom step etotal v_etotal_metal pe v_pe_metal               temp v_T_metal vol v_V_metal press v_P_metal
thermo        1

# Run a simulation for at most 2000*1000 timesteps. At each 1000th time step, check
# whether the temperature and pressure have converged. If yes, break.
label top
variable a loop 200
run 1000
  update every 1 steps, delay 10 steps, check yes
Step TotEng v_etotal_metal PotEng v_pe_metal Temp v_T_metal Volume v_V_metal Press v_P_metal
0   -13288.467   -13288.467       -13440       -13440       293.15       293.15    65552.357    65552.357    2469.1021    2469.1021
Averages over the last 501 of 1001 rows, steps 500 to 1000:
TotEng v_etotal_metal PotEng v_pe_metal Temp v_T_metal Volume v_V_metal Press v_P_metal
-13144.8 -13144.8 -13292.3 -13292.3 285.369 285.369 66471 66471 -141.811 -141.811
Loop time of 9.04 on 1 procs for 1000 steps with 4000 atoms

flag: Temp = 0, Press = 0
next a
jump SELF top
variable a loop 200
run 1000
Step TotEng v_etotal_metal PotEng v_pe_metal Temp v_T_metal Volume v_V_metal Press v_P_metal
1000   -13129.994   -13129.994    -13291.28    -13291.28    312.01827    312.01827    66417.982    66417.982    980.00103    980.00103
Averages over the last 501 of 1001 rows, steps 1500 to 2000:
TotEng v_etotal_metal PotEng v_pe_metal Temp v_T_metal Volume v_V_metal Press v_P_metal
-13137.7 -13137.7 -13289 -13289 292.734 292.734 66485.9 66485.9 -73.0831 -73.0831
Loop time of 11.8954 on 1 procs for 1000 steps with 4000 atoms

flag: Temp = 0, Press = 0
next a
jump SELF top
variable a loop 200
run 1000
Step TotEng v_etotal_metal PotEng v_pe_metal Temp v_T_metal Volume v_V_metal Press v_P_metal
2000   -13139.074   -13139.074   -13290.109   -13290.109    292.18882    292.18882    66469.196    66469.196    68.202277    68.202277
Averages over the last 501 of 1001 rows, steps 2500 to 3000:
TotEng v_etotal_metal PotEng v_pe_metal Temp v_T_metal Volume v_V_metal Press v_P_metal
-13136 -13136 -13288.1 -13288.1 294.144 294.144 66484.7 66484.7 -40.6035 -40.6035
Loop time of 12.1722 on 1 procs for 1000 steps with 4000 atoms

flag: Temp = 0, Press = 0
next a
jump SELF top
variable a loop 200
run 1000
Step TotEng v_etotal_metal PotEng v_pe_metal Temp v_T_metal Volume v_V_metal Press v_P_metal
3000   -13137.981   -13137.981   -13289.919   -13289.919    293.93329    293.93329    66488.437    66488.437   -291.05507   -291.05507
Averages over the last 501 of 1001 rows, steps 3500 to 4000:
TotEng v_etotal_metal PotEng v_pe_metal Temp v_T_metal Volume v_V_metal Press v_P_metal
-13138.1 -13138.1 -13289.1 -13289.1 292.017 292.017 66481.5 66481.5 -48.3161 -48.3161
Loop time of 13.9192 on 1 procs for 1000 steps with 4000 atoms

flag: Temp = 0, Press = 0
next a
jump SELF top
variable a loop 200
run 1000
Step TotEng v_etotal_metal PotEng v_pe_metal Temp v_T_metal Volume v_V_metal Press v_P_metal
4000   -13134.777   -13134.777    -13286.55    -13286.55    293.61596    293.61596    66524.092    66524.092   -431.92756   -431.92756
Averages over the last 501 of 1001 rows, steps 4500 to 5000:
TotEng v_etotal_metal PotEng v_pe_metal Temp v_T_metal Volume v_V_metal Press v_P_metal
-13136.4 -13136.4 -13288.3 -13288.3 293.738 293.738 66489 66489 -71.8522 -71.8522
Loop time of 14.3113 on 1 procs for 1000 steps with 4000 atoms

flag: Temp = 290.929723351168, Press = -407.154183474493
next a
jump SELF top
variable a loop 200
run 1000
Step TotEng v_etotal_metal PotEng v_pe_metal Temp v_T_metal Volume v_V_metal Press v_P_metal
5000   -13140.459   -13140.459   -13290.032   -13290.032    289.36014    289.36014    66505.243    66505.243   -416.48476   -416.48476
Averages over the last 501 of 1001 rows, steps 5500 to 6000:
TotEng v_etotal_metal PotEng v_pe_metal Temp v_T_metal Volume v_V_metal Press v_P_metal
-13137.6 -13137.6 -13288.9 -13288.9 292.737 292.737 66489.1 66489.1 -101.717 -101.717
Loop time of 12.6361 on 1 procs for 1000 steps with 4000 atoms

flag: Temp = 292.978455704469, Press = -46.6507825258198
next a
jump SELF top
variable a loop 200
run 1000
Step TotEng v_etotal_metal PotEng v_pe_metal Temp v_T_metal Volume v_V_metal Press v_P_metal
6000   -13134.736   -13134.736   -13287.838   -13287.838    296.18756    296.18756    66592.557    66592.557   -1190.8906   -1190.8906
Averages over the last 501 of 1001 rows, steps 6500 to 7000:
TotEng v_etotal_metal PotEng v_pe_metal Temp v_T_metal Volume v_V_metal Press v_P_metal
-13137 -13137 -13288.6 -13288.6 293.207 293.207 66492 66492 -50.4336 -50.4336
Loop time of 12.5564 on 1 procs for 1000 steps with 4000 atoms

flag: Temp = 292.960723336804, Press = -15.3899640079417
next a
jump SELF top
variable a loop 200
run 1000
Step TotEng v_etotal_metal PotEng v_pe_metal Temp v_T_metal Volume v_V_metal Press v_P_metal
7000   -13139.986   -13139.986   -13289.102   -13289.102    288.47562    288.47562    66571.675    66571.675   -1024.0049   -1024.0049
Averages over the last 501 of 1001 rows, steps 7500 to 8000:
TotEng v_etotal_metal PotEng v_pe_metal Temp v_T_metal Volume v_V_metal Press v_P_metal
-13138.1 -13138.1 -13289.3 -13289.3 292.403 292.403 66478.3 66478.3 17.6576 17.6576
Loop time of 13.8131 on 1 procs for 1000 steps with 4000 atoms

flag: Temp = 292.919453432653, Press = -4.37575462731015
next a
jump SELF top
variable a loop 200
run 1000
Step TotEng v_etotal_metal PotEng v_pe_metal Temp v_T_metal Volume v_V_metal Press v_P_metal
8000   -13137.081   -13137.081    -13287.55    -13287.55    291.09253    291.09253     66555.21     66555.21   -748.33787   -748.33787
Averages over the last 501 of 1001 rows, steps 8500 to 9000:
TotEng v_etotal_metal PotEng v_pe_metal Temp v_T_metal Volume v_V_metal Press v_P_metal
-13139 -13139 -13289.6 -13289.6 291.399 291.399 66474.4 66474.4 33.6548 33.6548
Loop time of 12.7398 on 1 procs for 1000 steps with 4000 atoms

flag: Temp = 292.538206276298, Press = -3.20254561900576
next a
jump SELF top
variable a loop 200
run 1000
Step TotEng v_etotal_metal PotEng v_pe_metal Temp v_T_metal Volume v_V_metal Press v_P_metal
9000   -13147.582   -13147.582   -13295.011   -13295.011     285.2113     285.2113    66487.276    66487.276   -489.71897   -489.71897
Averages over the last 501 of 1001 rows, steps 9500 to 10000:
TotEng v_etotal_metal PotEng v_pe_metal Temp v_T_metal Volume v_V_metal Press v_P_metal
-13138.7 -13138.7 -13289.5 -13289.5 291.749 291.749 66479 66479 19.5159 19.5159
Loop time of 12.203 on 1 procs for 1000 steps with 4000 atoms

flag: Temp = 292.303909392245, Press = -3.5121099842664
next a
jump SELF top
variable a loop 200
run 1000
Step TotEng v_etotal_metal PotEng v_pe_metal Temp v_T_metal Volume v_V_metal Press v_P_metal
10000   -13137.223   -13137.223   -13290.585   -13290.585    296.68866    296.68866    66493.987    66493.987   -70.786239   -70.786239
Averages over the last 501 of 1001 rows, steps 10500 to 11000:
TotEng v_etotal_metal PotEng v_pe_metal Temp v_T_metal Volume v_V_metal Press v_P_metal
-13137.5 -13137.5 -13288.9 -13288.9 292.834 292.834 66479.1 66479.1 59.56 59.56
Loop time of 14.4051 on 1 procs for 1000 steps with 4000 atoms

flag: Temp = 292.575933205831, Press = -2.20839584148186
next a
jump SELF top
variable a loop 200
run 1000
Step TotEng v_etotal_metal PotEng v_pe_metal Temp v_T_metal Volume v_V_metal Press v_P_metal
11000   -13135.637   -13135.637   -13288.246   -13288.246    295.23204    295.23204    66480.642    66480.642    29.584147    29.584147
Averages over the last 501 of 1001 rows, steps 11500 to 12000:
TotEng v_etotal_metal PotEng v_pe_metal Temp v_T_metal Volume v_V_metal Press v_P_metal
-13138.4 -13138.4 -13289.5 -13289.5 292.131 292.131 66480.8 66480.8 24.4732 24.4732
Loop time of 12.7818 on 1 procs for 1000 steps with 4000 atoms

flag: Temp = 292.450927709236, Press = -2.94686175540743
next a
jump SELF top
variable a loop 200
run 1000
Step TotEng v_etotal_metal PotEng v_pe_metal Temp v_T_metal Volume v_V_metal Press v_P_metal
12000   -13137.791   -13137.791   -13288.784   -13288.784     292.1062     292.1062    66445.437    66445.437    417.06632    417.06632
Averages over the last 501 of 1001 rows, steps 12500 to 13000:
TotEng v_etotal_metal PotEng v_pe_metal Temp v_T_metal Volume v_V_metal Press v_P_metal
-13136.7 -13136.7 -13288.4 -13288.4 293.485 293.485 66488.7 66488.7 -41.9902 -41.9902
Loop time of 13.6542 on 1 procs for 1000 steps with 4000 atoms

flag: Temp = 292.525757382033, Press = -4.50361083025854
next a
jump SELF top
variable a loop 200
run 1000
Step TotEng v_etotal_metal PotEng v_pe_metal Temp v_T_metal Volume v_V_metal Press v_P_metal
13000   -13136.608   -13136.608   -13289.519   -13289.519    295.81641    295.81641    66434.808    66434.808    530.11673    530.11673
Averages over the last 501 of 1001 rows, steps 13500 to 14000:
TotEng v_etotal_metal PotEng v_pe_metal Temp v_T_metal Volume v_V_metal Press v_P_metal
-13135.7 -13135.7 -13287.9 -13287.9 294.441 294.441 66495.6 66495.6 -97.2694 -97.2694
Loop time of 12.22 on 1 procs for 1000 steps with 4000 atoms

flag: Temp = 292.729909939585, Press = -5.64868715646866
next a
jump SELF top
variable a loop 200
run 1000
Step TotEng v_etotal_metal PotEng v_pe_metal Temp v_T_metal Volume v_V_metal Press v_P_metal
14000    -13136.15    -13136.15   -13288.055   -13288.055    293.87029    293.87029    66450.995    66450.995    402.52198    402.52198
Averages over the last 501 of 1001 rows, steps 14500 to 15000:
TotEng v_etotal_metal PotEng v_pe_metal Temp v_T_metal Volume v_V_metal Press v_P_metal
-13136.4 -13136.4 -13288.1 -13288.1 293.506 293.506 66499.6 66499.6 -184.13 -184.13
Loop time of 12.0058 on 1 procs for 1000 steps with 4000 atoms

flag: Temp = 292.8309207442, Press = -7.67329855921266
next a
jump SELF top
variable a loop 200
run 1000
Step TotEng v_etotal_metal PotEng v_pe_metal Temp v_T_metal Volume v_V_metal Press v_P_metal
15000    -13139.95    -13139.95   -13290.512   -13290.512    291.27276    291.27276     66444.75     66444.75    281.86712    281.86712
Averages over the last 501 of 1001 rows, steps 15500 to 16000:
TotEng v_etotal_metal PotEng v_pe_metal Temp v_T_metal Volume v_V_metal Press v_P_metal
-13138.5 -13138.5 -13289.4 -13289.4 291.861 291.861 66492.2 66492.2 -159.02 -159.02
Loop time of 14.3481 on 1 procs for 1000 steps with 4000 atoms

flag: Temp = 292.791811473876, Press = -5.10712857629958
next a
jump SELF top
variable a loop 200
run 1000
Step TotEng v_etotal_metal PotEng v_pe_metal Temp v_T_metal Volume v_V_metal Press v_P_metal
16000   -13135.975   -13135.975   -13290.202   -13290.202    298.36216    298.36216    66517.449    66517.449   -388.76378   -388.76378
Averages over the last 501 of 1001 rows, steps 16500 to 17000:
TotEng v_etotal_metal PotEng v_pe_metal Temp v_T_metal Volume v_V_metal Press v_P_metal
-13137.5 -13137.5 -13288.9 -13288.9 292.822 292.822 66489.4 66489.4 -62.83 -62.83
Loop time of 13.6571 on 1 procs for 1000 steps with 4000 atoms

flag: Temp = 292.709384743779, Press = -2.67093432758956
next a
jump SELF top
variable a loop 200
run 1000
Step TotEng v_etotal_metal PotEng v_pe_metal Temp v_T_metal Volume v_V_metal Press v_P_metal
17000   -13134.296   -13134.296   -13285.612   -13285.612     292.7313     292.7313    66530.421    66530.421   -312.28691   -312.28691
Averages over the last 501 of 1001 rows, steps 17500 to 18000:
TotEng v_etotal_metal PotEng v_pe_metal Temp v_T_metal Volume v_V_metal Press v_P_metal
-13134.7 -13134.7 -13287.6 -13287.6 295.757 295.757 66490.9 66490.9 -27.492 -27.492
Loop time of 13.2153 on 1 procs for 1000 steps with 4000 atoms

flag: Temp = 292.856118936226, Press = -2.10516019681923
next a
jump SELF top
variable a loop 200
run 1000
Step TotEng v_etotal_metal PotEng v_pe_metal Temp v_T_metal Volume v_V_metal Press v_P_metal
18000   -13139.221   -13139.221   -13285.542   -13285.542    283.06767    283.06767    66521.036    66521.036   -404.21851   -404.21851
Averages over the last 501 of 1001 rows, steps 18500 to 19000:
TotEng v_etotal_metal PotEng v_pe_metal Temp v_T_metal Volume v_V_metal Press v_P_metal
-13136 -13136 -13288.1 -13288.1 294.183 294.183 66479.3 66479.3 27.408 27.408
Loop time of 10.8734 on 1 procs for 1000 steps with 4000 atoms

flag: Temp = 292.991619113318, Press = -1.03025277568379
next a
jump SELF top
variable a loop 200
run 1000
Step TotEng v_etotal_metal PotEng v_pe_metal Temp v_T_metal Volume v_V_metal Press v_P_metal
19000   -13132.121   -13132.121    -13285.65    -13285.65     297.0124     297.0124    66543.151    66543.151   -575.45132   -575.45132
Averages over the last 501 of 1001 rows, steps 19500 to 20000:
TotEng v_etotal_metal PotEng v_pe_metal Temp v_T_metal Volume v_V_metal Press v_P_metal
-13136.5 -13136.5 -13288.3 -13288.3 293.664 293.664 66475.6 66475.6 87.324 87.324
Loop time of 9.79641 on 1 procs for 1000 steps with 4000 atoms

jump SELF break

# Write final averaged volume to file if temperature and volume have converged; otherwise wirte a
# flag to indicate non-convergence.
variable      myStep equal step
66482.5846019776

print "LAMMPS calculation completed"
LAMMPS calculation completed
quit 0
